*SPEF "IEEE 1481-1998"
*DESIGN "rgb2gray"
*DATE "Sat Mar 23 14:31:44 2019"
*VENDOR "Cadence Design Systems, Inc."
*PROGRAM "Innovus"
*VERSION "18.10-p002_1"
*DESIGN_FLOW "COUPLING C" "PIN_CAP NONE" "NAME_SCOPE LOCAL"
*DIVIDER /
*DELIMITER :
*BUS_DELIMITER []
*T_UNIT 1 NS
*C_UNIT 1 PF
*R_UNIT 1 OHM
*L_UNIT 1 HENRY

// MMMC spef file for corner 'default_rc_corner'

*NAME_MAP

*1 add_66/FE_OCPN50_min_3
*2 FE_OFN24_resetn
*3 FE_DBTN9_r_int_3
*4 FE_DBTN8_r_int_0
*5 FE_DBTN7_b_int_5
*6 FE_DBTN6_b_int_4
*7 FE_DBTN5_b_int_7
*8 FE_DBTN4_b_int_2
*9 FE_DBTN3_b_int_6
*10 FE_DBTN2_b_int_1
*11 FE_DBTN1_g_int_3
*12 FE_DBTN0_g_int_0
*13 r[7]
*14 r[6]
*15 r[5]
*16 r[4]
*17 r[3]
*18 r[2]
*19 r[1]
*20 r[0]
*21 b[7]
*22 b[6]
*23 b[5]
*24 b[4]
*25 b[3]
*26 b[2]
*27 b[1]
*28 b[0]
*29 g[7]
*30 g[6]
*31 g[5]
*32 g[4]
*33 g[3]
*34 g[2]
*35 g[1]
*36 g[0]
*37 gray[7]
*38 gray[6]
*39 gray[5]
*40 gray[4]
*41 gray[3]
*42 gray[2]
*43 gray[1]
*44 gray[0]
*45 clk
*46 resetn
*47 N4
*48 N5
*49 N6
*50 N8
*51 N9
*52 N10
*53 N20
*54 N21
*55 N22
*56 N24
*57 N25
*58 N26
*59 n28
*60 n29
*61 n30
*62 n31
*63 n32
*64 n33
*65 n34
*66 n35
*67 n36
*68 n37
*69 n38
*70 n39
*71 n40
*72 n41
*73 n42
*74 n43
*75 n44
*76 n45
*77 n46
*78 n47
*79 n48
*80 n49
*81 n50
*82 n51
*83 n52
*84 n53
*85 n54
*86 n55
*87 n56
*88 n57
*89 n60
*90 n68
*91 n69
*92 n70
*93 n71
*94 n72
*95 n73
*96 n74
*97 n75
*98 n76
*99 n78
*100 n79
*101 n80
*102 n81
*103 n82
*104 n83
*105 n84
*106 n85
*107 n86
*108 n87
*109 n89
*110 n90
*111 n91
*112 n92
*113 n93
*114 n94
*115 n96
*116 n97
*117 n98
*118 n99
*119 n100
*120 n101
*121 n102
*122 n103
*123 n104
*124 n105
*125 n106
*126 n107
*127 n108
*128 n109
*129 n110
*130 n111
*131 n112
*132 n113
*133 n114
*134 n115
*135 n116
*136 n117
*137 n118
*138 n119
*139 n120
*140 n121
*141 n122
*142 n123
*143 n124
*144 n128
*145 n130
*146 n131
*147 n132
*148 n133
*149 n135
*150 n136
*151 n138
*152 n139
*153 n140
*154 n141
*155 n142
*156 n143
*157 n145
*158 n146
*159 n148
*160 n149
*161 n150
*162 n151
*163 n152
*164 n153
*165 n154
*166 n155
*167 n156
*168 n157
*169 n158
*170 n159
*171 n160
*172 n161
*173 n162
*174 n163
*175 n164
*176 n165
*177 n166
*178 n167
*179 n168
*180 n169
*181 n170
*182 n171
*183 n172
*184 n173
*185 n174
*186 n176
*187 n177
*188 n178
*189 n179
*190 n180
*191 n181
*192 n182
*193 n183
*194 n184
*195 n185
*196 n186
*197 n187
*198 n188
*199 n189
*200 n190
*201 n191
*202 n192
*203 n193
*204 n195
*205 n196
*206 n197
*207 n198
*208 n199
*209 n200
*210 n201
*211 n202
*212 n203
*213 n204
*214 n205
*215 n206
*216 n207
*217 n208
*218 n210
*219 n211
*220 n212
*221 n213
*222 n214
*223 n215
*224 n216
*225 n217
*226 n218
*227 n219
*228 n220
*229 n221
*230 n222
*231 n223
*232 n227
*233 n229
*234 n230
*235 n231
*236 n232
*237 n234
*238 n235
*239 n237
*240 n238
*241 n239
*242 n240
*243 n241
*244 n242
*245 n244
*246 n245
*247 n247
*248 n248
*249 n249
*250 n250
*251 n251
*252 n252
*253 n253
*254 n254
*255 n255
*256 n256
*257 n257
*258 n258
*259 n259
*260 n260
*261 n261
*262 n262
*263 n263
*264 n264
*265 n265
*266 n266
*267 r_int[7]
*268 r_int[6]
*269 r_int[5]
*270 r_int[4]
*271 r_int[3]
*272 r_int[2]
*273 r_int[1]
*274 r_int[0]
*275 b_int[7]
*276 b_int[6]
*277 b_int[5]
*278 b_int[4]
*279 b_int[3]
*280 b_int[2]
*281 b_int[1]
*282 b_int[0]
*283 g_int[7]
*284 g_int[6]
*285 g_int[5]
*286 g_int[4]
*287 g_int[3]
*288 g_int[2]
*289 g_int[1]
*290 g_int[0]
*291 max[7]
*292 max[6]
*293 max[5]
*294 max[4]
*295 max[3]
*296 max[2]
*297 max[1]
*298 max[0]
*299 min[7]
*300 min[6]
*301 min[5]
*302 min[4]
*303 min[3]
*304 min[2]
*305 min[1]
*306 min[0]
*307 sum[8]
*308 sum[7]
*309 sum[6]
*310 sum[5]
*311 sum[4]
*312 sum[3]
*313 sum[2]
*314 sum[1]
*315 add_66/n1
*316 add_66/n2
*317 add_66/n3
*318 add_66/n4
*319 add_66/n5
*320 add_66/n6
*321 add_66/n7
*322 add_66/n8
*323 add_66/n10
*324 add_66/n11
*325 add_66/n12
*326 add_66/n13
*327 add_66/n14
*328 add_66/n15
*329 add_66/n16
*330 add_66/n17
*331 add_66/n18
*332 add_66/n20
*333 add_66/n21
*334 add_66/n22
*335 add_66/n23
*336 add_66/n24
*337 add_66/n25
*338 add_66/n26
*339 add_66/n27
*340 add_66/n28
*341 add_66/n29
*342 add_66/n30
*343 add_66/n31
*344 add_66/n32
*345 add_66/n34
*346 add_66/n35
*347 add_66/n36
*348 add_66/n37
*349 add_66/n38
*350 add_66/n39
*351 add_66/n40
*352 add_66/n41
*353 add_66/n42
*354 add_66/n43
*355 add_66/n44
*356 add_66/n45
*357 add_66/n46
*358 add_66/n47
*359 add_66/n48
*360 add_66/n49
*361 add_66/n50
*362 add_66/n51
*363 add_66/n52
*364 FE_RC_4_0
*365 FE_RC_3_0
*366 FE_RC_2_0
*367 FE_RC_1_0
*368 FE_RC_0_0
*369 FE_OFC24_resetn
*370 FE_DBTC9_r_int_3
*371 FE_DBTC8_r_int_0
*372 FE_DBTC7_b_int_5
*373 FE_DBTC6_b_int_4
*374 FE_DBTC5_b_int_7
*375 FE_DBTC4_b_int_2
*376 FE_DBTC3_b_int_6
*377 FE_DBTC2_b_int_1
*378 FE_DBTC1_g_int_3
*379 FE_DBTC0_g_int_0
*380 C203
*381 C200
*382 C198
*383 C195
*384 r_int_reg\[7\]
*385 r_int_reg\[6\]
*386 r_int_reg\[5\]
*387 r_int_reg\[4\]
*388 r_int_reg\[3\]
*389 r_int_reg\[2\]
*390 r_int_reg\[0\]
*391 b_int_reg\[7\]
*392 b_int_reg\[6\]
*393 b_int_reg\[5\]
*394 b_int_reg\[4\]
*395 b_int_reg\[3\]
*396 b_int_reg\[2\]
*397 b_int_reg\[1\]
*398 b_int_reg\[0\]
*399 g_int_reg\[7\]
*400 g_int_reg\[6\]
*401 g_int_reg\[5\]
*402 g_int_reg\[4\]
*403 g_int_reg\[3\]
*404 g_int_reg\[2\]
*405 g_int_reg\[1\]
*406 g_int_reg\[0\]
*407 gray_reg\[0\]
*408 gray_reg\[1\]
*409 gray_reg\[2\]
*410 gray_reg\[3\]
*411 gray_reg\[4\]
*412 gray_reg\[5\]
*413 gray_reg\[6\]
*414 gray_reg\[7\]
*415 U3
*416 U9
*417 U10
*418 U15
*419 U19
*420 U20
*421 U21
*422 U22
*423 U23
*424 U24
*425 U26
*426 add_66/FE_OCPC50_min_3
*427 add_66/U8
*428 add_66/U9
*429 add_66/U11
*430 add_66/U12
*431 add_66/U19
*432 add_66/U29
*433 add_66/U64
*434 add_66/U65
*435 add_66/U66
*436 add_66/U67
*437 add_66/U68
*438 add_66/U69
*439 add_66/U71
*440 add_66/U73
*441 add_66/U74
*442 add_66/U75
*443 add_66/U76
*444 add_66/U77
*445 add_66/U78
*446 add_66/U79
*447 add_66/U80
*448 add_66/U81
*449 add_66/U82
*450 add_66/U83
*451 add_66/U85
*452 add_66/U86
*453 add_66/U87
*454 add_66/U89
*455 add_66/U90
*456 add_66/U91
*457 add_66/U92
*458 add_66/U93
*459 add_66/U94
*460 add_66/U95
*461 add_66/U96
*462 add_66/U97
*463 add_66/U98
*464 add_66/U99
*465 add_66/U100
*466 add_66/U101
*467 add_66/U102
*468 add_66/U103
*469 add_66/U104
*470 add_66/U105
*471 add_66/U106
*472 add_66/U107
*473 add_66/U108
*474 add_66/U109
*475 add_66/U110
*476 add_66/U111
*477 add_66/U112
*478 add_66/U113
*479 add_66/U114
*480 add_66/U115
*481 add_66/U116
*482 add_66/U117
*483 add_66/U118
*484 r_int_reg\[1\]
*485 U30
*486 U33
*487 U36
*488 U37
*489 U38
*490 U39
*491 U41
*492 U44
*493 U46
*494 U48
*495 U49
*496 U50
*497 U51
*498 U52
*499 U53
*500 U54
*501 U55
*502 U56
*503 U59
*504 U61
*505 U62
*506 U63
*507 U64
*508 U65
*509 U66
*510 U67
*511 U68
*512 U69
*513 U71
*514 U72
*515 U73
*516 U74
*517 U75
*518 U76
*519 U77
*520 U78
*521 U79
*522 U80
*523 U81
*524 U82
*525 U83
*526 U84
*527 U85
*528 U86
*529 U87
*530 U88
*531 U89
*532 U90
*533 U91
*534 U92
*535 U93
*536 U94
*537 U95
*538 U96
*539 U98
*540 U99
*541 U100
*542 U101
*543 U102
*544 U103
*545 U104
*546 U106
*547 U108
*548 U110
*549 U111
*550 U113
*551 U115
*552 U116
*553 U117
*554 U121
*555 U123
*556 U124
*557 U125
*558 U126
*559 U127
*560 U128
*561 U129
*562 U130
*563 U131
*564 U132
*565 U133
*566 U134
*567 U135
*568 U136
*569 U137
*570 U138
*571 U139
*572 U140
*573 U141
*574 U142
*575 U143
*576 U144
*577 U145
*578 U146
*579 U147
*580 U149
*581 U150
*582 U151
*583 U152
*584 U153
*585 U154
*586 U155
*587 U156
*588 U159
*589 U161
*590 U162
*591 U163
*592 U164
*593 U165
*594 U166
*595 U167
*596 U168
*597 U169
*598 U170
*599 U171
*600 U172
*601 U173
*602 U174
*603 U175
*604 U176
*605 U177
*606 U178
*607 U179
*608 U180
*609 U181
*610 U182
*611 U183
*612 U184
*613 U185
*614 U186
*615 U187
*616 U188
*617 U189
*618 U190
*619 U191
*620 U192
*621 U193
*622 U194
*623 U195
*624 U196
*625 U197
*626 U198
*627 U199
*628 U200
*629 U201
*630 U202
*631 U203
*632 U204
*633 U205
*634 U206
*635 U207
*636 U209
*637 U211
*638 U213
*639 U214
*640 U216
*641 U218
*642 U219
*643 U220
*644 U224
*645 U226
*646 U227
*647 U228
*648 U229
*649 U230
*650 U231
*651 U232
*652 U233
*653 U234
*654 U235
*655 U236
*656 U237
*657 U238
*658 U239
*659 U240
*660 U241
*661 U242
*662 U243
*663 U244
*664 U245
*665 U246
*666 U247
*667 U248
*668 U249
*669 U250
*670 U251
*671 U252
*672 U253
*673 U254
*674 U255
*675 U256
*676 U257


*PORTS

*45 I *C 28.975 49.98
*46 I *C 12.825 49.98
*13 I *C 20.425 49.98
*14 I *C 19.475 49.98
*15 I *C 18.525 49.98
*16 I *C 17.575 49.98
*17 I *C 16.625 49.98
*18 I *C 15.675 49.98
*19 I *C 14.725 49.98
*20 I *C 13.775 49.98
*21 I *C 36.575 49.98
*22 I *C 35.625 49.98
*23 I *C 34.675 49.98
*24 I *C 33.725 49.98
*25 I *C 32.775 49.98
*26 I *C 31.825 49.98
*27 I *C 30.875 49.98
*28 I *C 29.925 49.98
*29 I *C 28.025 49.98
*30 I *C 27.075 49.98
*31 I *C 26.125 49.98
*32 I *C 25.175 49.98
*33 I *C 24.225 49.98
*34 I *C 23.275 49.98
*35 I *C 22.325 49.98
*36 I *C 21.375 49.98
*37 O *C 18.525 0
*38 O *C 20.425 0
*39 O *C 22.325 0
*40 O *C 24.225 0
*41 O *C 26.125 0
*42 O *C 28.025 0
*43 O *C 29.925 0
*44 O *C 31.825 0


*D_NET *1 0.00021164

*CONN
*I *426:Z O *C 27.59 28.65 *L 0 *D BUF_X1
*I *479:A2 I *C 27.42 26.565 *L 0.00161 *D NAND2_X1

*CAP
1 *426:Z 1.896e-05
2 *479:A2 1.896e-05
3 *1:2 5.65e-05
4 *1:3 5.486e-05
5 *1:4 3.036e-05
6 *1:5 3.2e-05

*RES
1 *1:5 *426:Z 4
2 *1:4 *1:5 1
3 *1:3 *1:4 0.678571
4 *1:2 *479:A2 4
5 *1:2 *1:3 2.5
*END

*D_NET *2 0.0105513

*CONN
*I *484:RN I *C 15.985 44.005 *L 0.00178 *D DFFR_X1
*I *414:RN I *C 18.075 19.275 *L 0.00178 *D DFFR_X1
*I *413:RN I *C 18.405 18.805 *L 0.00178 *D DFFR_X1
*I *412:RN I *C 21.635 19.275 *L 0.00178 *D DFFR_X1
*I *411:RN I *C 25.675 18.805 *L 0.00178 *D DFFR_X1
*I *410:RN I *C 26.195 19.275 *L 0.00178 *D DFFR_X1
*I *409:RN I *C 29.855 21.605 *L 0.00178 *D DFFR_X1
*I *408:RN I *C 29.425 18.805 *L 0.00178 *D DFFR_X1
*I *407:RN I *C 31.895 19.275 *L 0.00178 *D DFFR_X1
*I *406:RN I *C 19.215 38.875 *L 0.00178 *D DFFR_X1
*I *405:RN I *C 22.775 41.205 *L 0.00178 *D DFFR_X1
*I *404:RN I *C 26.385 44.005 *L 0.00178 *D DFFR_X1
*I *403:RN I *C 19.405 38.405 *L 0.00178 *D DFFR_X1
*I *402:RN I *C 24.535 41.675 *L 0.00178 *D DFFR_X1
*I *401:RN I *C 26.435 38.875 *L 0.00178 *D DFFR_X1
*I *400:RN I *C 22.825 44.005 *L 0.00178 *D DFFR_X1
*I *399:RN I *C 28.715 41.205 *L 0.00178 *D DFFR_X1
*I *398:RN I *C 29.095 41.675 *L 0.00178 *D DFFR_X1
*I *397:RN I *C 34.035 41.205 *L 0.00178 *D DFFR_X1
*I *396:RN I *C 31.945 44.005 *L 0.00178 *D DFFR_X1
*I *395:RN I *C 33.655 38.875 *L 0.00178 *D DFFR_X1
*I *394:RN I *C 36.315 44.005 *L 0.00178 *D DFFR_X1
*I *393:RN I *C 37.405 41.675 *L 0.00178 *D DFFR_X1
*I *392:RN I *C 37.595 41.205 *L 0.00178 *D DFFR_X1
*I *391:RN I *C 37.215 38.875 *L 0.00178 *D DFFR_X1
*I *390:RN I *C 14.655 41.675 *L 0.00178 *D DFFR_X1
*I *389:RN I *C 18.595 41.675 *L 0.00178 *D DFFR_X1
*I *388:RN I *C 18.025 41.205 *L 0.00178 *D DFFR_X1
*I *387:RN I *C 18.785 35.605 *L 0.00178 *D DFFR_X1
*I *386:RN I *C 18.975 30.005 *L 0.00178 *D DFFR_X1
*I *385:RN I *C 20.115 36.075 *L 0.00178 *D DFFR_X1
*I *384:RN I *C 19.925 30.475 *L 0.00178 *D DFFR_X1
*I *369:Z O *C 13.155 42.99 *L 0 *D CLKBUF_X2

*CAP
1 *484:RN 1.896e-05
2 *414:RN 1.896e-05
3 *413:RN 1.896e-05
4 *412:RN 3.792e-05
5 *411:RN 1.896e-05
6 *410:RN 3.792e-05
7 *409:RN 1.896e-05
8 *408:RN 1.896e-05
9 *407:RN 1.896e-05
10 *406:RN 1.896e-05
11 *405:RN 1.896e-05
12 *404:RN 1.896e-05
13 *403:RN 1.896e-05
14 *402:RN 3.792e-05
15 *401:RN 1.896e-05
16 *400:RN 1.896e-05
17 *399:RN 1.896e-05
18 *398:RN 1.896e-05
19 *397:RN 1.896e-05
20 *396:RN 1.896e-05
21 *395:RN 1.896e-05
22 *394:RN 3.792e-05
23 *393:RN 1.896e-05
24 *392:RN 1.896e-05
25 *391:RN 1.896e-05
26 *390:RN 1.896e-05
27 *389:RN 1.896e-05
28 *388:RN 1.896e-05
29 *387:RN 3.792e-05
30 *386:RN 1.896e-05
31 *385:RN 1.896e-05
32 *384:RN 3.792e-05
33 *369:Z 1.857e-05
34 *2:33 6.679e-05
35 *2:34 6.944e-05
36 *2:35 2.72e-05
37 *2:36 2.72e-05
38 *2:37 3.2e-05
39 *2:38 6.015e-05
40 *2:39 3.757e-05
41 *2:40 6.166e-05
42 *2:41 6.166e-05
43 *2:42 0.0001051
44 *2:43 0.0001051
45 *2:44 8.565e-05
46 *2:45 5.211e-05
47 *2:46 2.553e-05
48 *2:47 2.553e-05
49 *2:48 0.00014124
50 *2:49 0.00014124
51 *2:50 9.99e-05
52 *2:51 9.453e-05
53 *2:52 5.211e-05
54 *2:53 5.211e-05
55 *2:54 1.387e-05
56 *2:55 7.606e-05
57 *2:56 1.924e-05
58 *2:57 0.00012644
59 *2:58 6.896e-05
60 *2:59 0.00012029
61 *2:60 8.937e-05
62 *2:61 2.868e-05
63 *2:62 3.942e-05
64 *2:63 2.876e-05
65 *2:64 2.876e-05
66 *2:65 3.477e-05
67 *2:66 3.477e-05
68 *2:67 2.016e-05
69 *2:68 2.325e-05
70 *2:69 2.325e-05
71 *2:70 4.733e-05
72 *2:71 4.733e-05
73 *2:72 8.446e-05
74 *2:73 8.446e-05
75 *2:74 7.333e-05
76 *2:75 5.692e-05
77 *2:76 3.74e-05
78 *2:77 3.74e-05
79 *2:78 2.583e-05
80 *2:79 0.00014975
81 *2:80 0.00014975
82 *2:81 4.578e-05
83 *2:82 4.578e-05
84 *2:83 5.614e-05
85 *2:84 5.614e-05
86 *2:85 8.045e-05
87 *2:86 8.045e-05
88 *2:87 7.792e-05
89 *2:88 8.262e-05
90 *2:89 4.328e-05
91 *2:90 0.00012229
92 *2:91 8.843e-05
93 *2:92 4.585e-05
94 *2:93 4.585e-05
95 *2:94 0.00018359
96 *2:95 0.00012047
97 *2:96 7.254e-05
98 *2:97 9.171e-05
99 *2:98 0.00011271
100 *2:99 6.234e-05
101 *2:100 1.93e-05
102 *2:101 3.105e-05
103 *2:102 3.105e-05
104 *2:103 5.169e-05
105 *2:104 0.00013426
106 *2:105 6.841e-05
107 *2:106 4.296e-05
108 *2:107 5.084e-05
109 *2:108 2.977e-05
110 *2:109 7.201e-05
111 *2:110 8.678e-05
112 *2:111 1.575e-05
113 *2:112 1.575e-05
114 *2:113 9.093e-05
115 *2:114 9.093e-05
116 *2:115 1.435e-05
117 *2:116 3.113e-05
118 *2:117 0.00025563
119 *2:118 0.00025563
120 *2:119 3.546e-05
121 *2:120 3.546e-05
122 *2:121 7.527e-05
123 *2:122 6.785e-05
124 *2:123 6.785e-05
125 *2:124 4.034e-05
126 *2:125 8.297e-05
127 *2:126 0.00010873
128 *2:127 3.518e-05
129 *2:128 6.532e-05
130 *2:129 3.049e-05
131 *2:130 3.039e-05
132 *2:131 4.128e-05
133 *2:132 2.031e-05
134 *2:133 6.092e-05
135 *2:134 1.883e-05
136 *2:135 1.883e-05
137 *2:136 1.883e-05
138 *2:137 6.69e-05
139 *2:138 6.91e-05
140 *2:139 6.91e-05
141 *2:140 2.071e-05
142 *2:141 2.027e-05
143 *2:142 7.837e-05
144 *2:143 2.146e-05
145 *2:144 2.146e-05
146 *2:145 1.883e-05
147 *2:146 5.994e-05
148 *2:147 3.504e-05
149 *2:148 8.556e-05
150 *2:149 2.805e-05
151 *2:150 9.314e-05
152 *2:117 *45:123 4.74e-06
153 *2:118 *45:124 4.74e-06
154 *2:119 *45:159 3.63e-05
155 *2:120 *45:158 3.63e-05
156 *2:109 *45:150 1.556e-05
157 *2:110 *45:152 1.556e-05
158 *2:109 *45:152 4.149e-05
159 *2:110 *45:153 4.149e-05
160 *2:121 *45:157 2.275e-05
161 *2:104 *45:150 2.275e-05
162 *2:121 *45:150 2.07e-06
163 *2:104 *45:152 2.07e-06
164 *2:122 *45:143 1.134e-05
165 *2:123 *45:86 1.134e-05
166 *2:70 *45:136 1.44e-05
167 *2:71 *45:64 1.44e-05
168 *2:68 *45:60 3.37e-06
169 *2:69 *45:61 3.37e-06
170 *2:124 *45:64 1.743e-05
171 *2:59 *45:65 1.743e-05
172 *2:59 *45:60 6.224e-05
173 *2:60 *45:61 6.224e-05
174 *2:125 *45:61 1.743e-05
175 *2:126 *45:68 1.743e-05
176 *2:125 *45:68 8.1e-06
177 *2:126 *45:134 8.1e-06
178 *2:125 *45:134 6.1e-07
179 *2:126 *45:135 6.1e-07
180 *2:126 *45:134 1.453e-05
181 *2:127 *45:135 1.453e-05
182 *2:128 *45:51 1.672e-05
183 *2:55 *45:52 1.672e-05
184 *2:40 *45:66 7.64e-06
185 *2:41 *45:67 7.64e-06
186 *2:63 *45:66 7.64e-06
187 *2:64 *45:67 7.64e-06
188 *2:129 *45:44 5.85e-05
189 *2:107 *45:45 5.85e-05
190 *2:107 *45:44 5.015e-05
191 *2:108 *45:45 5.015e-05
192 *2:130 *45:44 1.352e-05
193 *2:131 *45:45 1.352e-05
194 *2:131 *45:44 8.11e-06
195 *2:132 *45:45 8.11e-06
196 *2:61 *45:42 7.9e-07
197 *2:62 *45:43 7.9e-07
198 *2:34 *45:102 2.34e-06
199 *2:133 *45:103 2.34e-06
200 *2:133 *45:147 3.343e-05
201 *2:99 *45:78 3.343e-05
202 *2:99 *45:78 2.507e-05
203 *2:100 *45:79 2.507e-05
204 *2:119 *284:32 4.668e-05
205 *2:120 *284:33 4.668e-05
206 *2:144 *284:32 2.593e-05
207 *2:143 *284:33 2.593e-05
208 *2:146 *284:33 0.00010891
209 *2:148 *284:41 0.00010891
210 *2:148 *284:33 3.63e-05
211 *2:147 *284:41 3.63e-05
212 *2:144 *288:22 2.593e-05
213 *2:143 *288:23 2.593e-05
214 *2:146 *288:22 0.00010891
215 *2:148 *288:23 0.00010891
216 *2:148 *288:22 1.556e-05
217 *2:147 *288:23 1.556e-05
218 *2:139 *288:22 9.854e-05
219 *2:138 *288:23 9.854e-05
220 *2:110 *288:22 1.101e-05
221 *2:150 *288:23 1.101e-05
222 *2:150 *288:22 7.705e-05
223 *2:142 *288:23 7.705e-05
224 *2:150 *286:13 6.102e-05
225 *2:142 *286:11 6.102e-05
226 *2:139 *286:11 4.594e-05
227 *2:138 *286:12 4.594e-05
228 *2:104 *286:13 2.875e-05
229 *2:105 *286:11 2.875e-05

*RES
1 *2:51 *391:RN 4
2 *2:51 *2:50 8.5
3 *2:50 *392:RN 4
4 *2:50 *2:54 0.5
5 *2:56 *2:54 0.678571
6 *2:56 *2:55 1
7 *2:55 *393:RN 4
8 *2:55 *2:128 6
9 *2:119 *2:128 4
10 *2:120 *2:119 6.10714
11 *2:53 *2:120 4
12 *2:53 *2:52 2.5
13 *394:RN *2:52 4
14 *2:95 *395:RN 4
15 *2:48 *394:RN 4
16 *2:102 *401:RN 4
17 *2:94 *397:RN 4
18 *2:95 *2:94 6.5
19 *2:49 *2:48 7
20 *2:102 *2:101 1.5
21 *2:94 *2:96 3
22 *2:121 *2:49 4
23 *2:122 *2:101 4
24 *2:104 *2:96 4
25 *2:104 *2:121 8.14286
26 *2:123 *2:122 5.42857
27 *2:105 *2:104 7.46429
28 *2:108 *2:123 4
29 *2:91 *399:RN 4
30 *2:45 *2:105 4
31 *2:106 *396:RN 4
32 *2:107 *405:RN 4
33 *2:108 *2:107 3
34 *2:90 *398:RN 4
35 *2:91 *2:90 3.5
36 *2:45 *2:44 4
37 *2:44 *2:106 3
38 *2:107 *2:129 3.5
39 *2:92 *404:RN 4
40 *2:90 *2:89 1.5
41 *2:109 *2:44 4
42 *402:RN *2:129 4
43 *2:93 *2:92 3
44 *2:110 *2:89 4
45 *2:110 *2:109 10.1786
46 *2:150 *2:93 4
47 *2:150 *2:110 2.03571
48 *2:132 *402:RN 4
49 *2:142 *2:150 14.25
50 *2:132 *2:131 1.5
51 *2:131 *2:142 4
52 *2:131 *2:130 2.5
53 *2:144 *2:130 4
54 *2:114 *390:RN 4
55 *369:Z *2:149 2.06286
56 *2:37 *400:RN 4
57 *2:143 *2:144 3.39286
58 *2:114 *2:113 4
59 *2:113 *2:149 4
60 *2:111 *484:RN 4
61 *2:38 *2:37 2.5
62 *2:38 *2:143 4
63 *2:147 *2:113 4
64 *2:112 *2:111 0.5
65 *2:39 *2:38 2
66 *2:147 *2:148 4.75
67 *2:148 *2:112 4
68 *2:139 *2:39 4
69 *2:148 *2:146 14.25
70 *2:138 *2:139 12.8929
71 *2:116 *2:146 4
72 *2:97 *2:138 4
73 *2:97 *2:116 2
74 *2:98 *389:RN 4
75 *2:98 *2:97 4
76 *2:103 *2:98 3
77 *2:140 *406:RN 4
78 *2:103 *2:115 0.678571
79 *2:145 *385:RN 4
80 *2:141 *2:140 0.5
81 *2:33 *2:115 0.5
82 *2:33 *388:RN 4
83 *2:85 *2:145 4
84 *2:141 *2:34 0.678571
85 *2:34 *2:33 7
86 *2:86 *2:85 4.75
87 *2:133 *2:34 1
88 *2:133 *403:RN 4
89 *2:46 *407:RN 4
90 *2:99 *2:86 4
91 *2:99 *2:133 8.5
92 *2:47 *2:46 1.5
93 *2:100 *2:99 1.5
94 *2:136 *408:RN 4
95 *2:137 *2:47 4
96 *387:RN *2:100 4
97 *2:57 *2:136 4
98 *2:57 *2:137 7.46429
99 *2:58 *2:57 4.75
100 *2:87 *387:RN 4
101 *2:43 *2:58 4
102 *2:88 *2:87 6.5
103 *2:42 *409:RN 4
104 *2:43 *2:42 8
105 *2:84 *2:88 4
106 *2:70 *2:42 4
107 *2:84 *2:83 4.07143
108 *2:71 *2:70 5.42857
109 *2:79 *2:83 4
110 *2:40 *2:71 4
111 *2:80 *2:79 8
112 *2:41 *2:40 4.5
113 *384:RN *2:80 4
114 *410:RN *2:41 4
115 *2:36 *413:RN 4
116 *2:135 *414:RN 4
117 *2:81 *384:RN 4
118 *2:64 *410:RN 4
119 *2:36 *2:35 1.5
120 *2:127 *2:135 4
121 *2:82 *2:81 2
122 *2:64 *2:63 1
123 *2:66 *411:RN 4
124 *2:126 *2:35 4
125 *2:127 *2:126 3.39286
126 *2:76 *2:82 4
127 *2:124 *2:63 4
128 *2:66 *2:65 2.5
129 *2:126 *2:125 11.5357
130 *2:77 *2:76 2.03571
131 *2:59 *2:124 4.07143
132 *2:59 *2:65 4
133 *2:134 *2:125 4
134 *2:78 *2:77 4
135 *2:60 *2:59 9.5
136 *412:RN *2:134 4
137 *2:74 *386:RN 4
138 *2:74 *2:78 1.5
139 *2:67 *2:60 4
140 *2:75 *2:74 5
141 *2:67 *2:62 1
142 *2:62 *412:RN 4
143 *2:73 *2:75 4
144 *2:62 *2:61 3
145 *2:73 *2:72 8.39286
146 *2:68 *2:61 4
147 *2:117 *2:72 4
148 *2:69 *2:68 1.10714
149 *2:118 *2:117 11.13
150 *2:118 *2:69 4
*END

*D_NET *3 0.00173925

*CONN
*I *563:A2 I *C 32.93 32.165 *L 0.000939 *D AND2_X1
*I *547:A1 I *C 32.74 33.915 *L 0.000905 *D OR2_X1
*I *524:A2 I *C 18.75 32.165 *L 0.000939 *D AND2_X1
*I *503:A1 I *C 19.7 33.915 *L 0.000905 *D OR2_X1
*I *370:ZN O *C 20.56 34.29 *L 0 *D INV_X1

*CAP
1 *563:A2 1.896e-05
2 *547:A1 1.896e-05
3 *524:A2 1.896e-05
4 *503:A1 7.97e-06
5 *370:ZN 1.896e-05
6 *3:5 4.8e-05
7 *3:6 2.2e-05
8 *3:7 0.0004637
9 *3:8 0.0004637
10 *3:9 2.208e-05
11 *3:10 1.366e-05
12 *3:11 2.693e-05
13 *3:12 3.072e-05
14 *3:13 1.513e-05
15 *3:14 2.367e-05
16 *3:15 2.429e-05
17 *3:16 1.883e-05
18 *3:17 8.059e-05
19 *3:18 8.059e-05
20 *3:19 5.99e-05
21 *3:20 6.623e-05
22 *3:21 3.45e-05
23 *3:22 8e-05
24 *3:23 8.092e-05

*RES
1 *503:A1 *3:10 1.03143
2 *3:16 *524:A2 4
3 *3:11 *3:10 0.76
4 *3:17 *3:16 4
5 *3:11 *3:12 2.06286
6 *3:23 *563:A2 4
7 *3:17 *3:18 6.78571
8 *3:13 *3:12 4
9 *3:23 *3:22 3.5
10 *3:19 *3:18 4
11 *3:14 *3:13 0.5
12 *3:6 *3:22 0.678571
13 *3:21 *547:A1 4
14 *3:19 *3:20 3.5
15 *3:20 *370:ZN 4
16 *3:14 *3:15 1.35714
17 *3:6 *3:5 0.5
18 *3:5 *3:21 1.5
19 *3:20 *3:9 0.5
20 *3:9 *3:15 0.5
21 *3:7 *3:5 4
22 *3:8 *3:9 4
23 *3:8 *3:7 43.4286
*END

*D_NET *4 0.00219464

*CONN
*I *578:A1 I *C 29.645 37.765 *L 0.00164 *D NOR2_X1
*I *548:A2 I *C 29.7 39.515 *L 0.00161 *D NAND2_X1
*I *537:A1 I *C 16.345 37.765 *L 0.00164 *D NOR2_X1
*I *504:A2 I *C 14.69 37.765 *L 0.00161 *D NAND2_X1
*I *371:ZN O *C 14.29 39.89 *L 0 *D INV_X1

*CAP
1 *578:A1 1.896e-05
2 *548:A2 1.896e-05
3 *537:A1 1.896e-05
4 *504:A2 1.896e-05
5 *371:ZN 1.587e-05
6 *4:5 1.702e-05
7 *4:6 2.509e-05
8 *4:7 3.035e-05
9 *4:8 3.035e-05
10 *4:9 7.267e-05
11 *4:10 7.267e-05
12 *4:11 2.919e-05
13 *4:12 2.919e-05
14 *4:13 4.204e-05
15 *4:14 2.071e-05
16 *4:15 4.236e-05
17 *4:16 4.236e-05
18 *4:17 4.11e-05
19 *4:18 4.018e-05
20 *4:19 2.983e-05
21 *4:20 3.545e-05
22 *4:21 3.501e-05
23 *4:22 4.284e-05
24 *4:23 5.457e-05
25 *4:24 2.071e-05
26 *4:25 1.749e-05
27 *4:26 0.00062499
28 *4:27 0.00062499
29 *4:28 2.535e-05
30 *4:29 1.988e-05
31 *4:30 1.827e-05
32 *4:31 1.827e-05

*RES
1 *4:17 *548:A2 4
2 *4:18 *4:17 2
3 *4:18 *4:15 0.678571
4 *4:16 *4:15 1.5
5 *4:19 *4:16 0.678571
6 *4:13 *578:A1 4
7 *4:13 *4:19 2
8 *4:14 *4:13 0.5
9 *4:11 *4:14 4
10 *4:12 *4:11 1.21429
11 *4:31 *4:12 4
12 *4:30 *4:31 0.21
13 *4:26 *4:30 4
14 *4:27 *4:26 18.48
15 *4:29 *4:27 4
16 *4:7 *4:29 4
17 *4:8 *4:7 2.28571
18 *4:25 *4:8 4
19 *4:25 *4:6 1
20 *4:6 *537:A1 4
21 *4:6 *4:5 0.5
22 *4:9 *4:5 4
23 *4:24 *504:A2 4
24 *4:10 *4:9 6.10714
25 *4:24 *4:23 0.5
26 *4:23 *4:10 4
27 *4:23 *4:22 1.5
28 *4:21 *4:22 0.678571
29 *4:21 *4:20 1.5
30 *4:28 *4:20 4
31 *371:ZN *4:28 1.03143
*END

*D_NET *5 0.00244157

*CONN
*I *651:A1 I *C 35.725 28.315 *L 0.00164 *D NOR2_X1
*I *644:A2 I *C 35.85 33.915 *L 0.00161 *D NAND2_X1
*I *561:A1 I *C 35.155 26.565 *L 0.00164 *D NOR2_X1
*I *554:A2 I *C 35.28 28.315 *L 0.00161 *D NAND2_X1
*I *372:ZN O *C 39.75 39.89 *L 0 *D INV_X1

*CAP
1 *651:A1 1.896e-05
2 *644:A2 1.896e-05
3 *561:A1 1.896e-05
4 *554:A2 1.896e-05
5 *372:ZN 1.896e-05
6 *5:5 8.874e-05
7 *5:6 8.874e-05
8 *5:7 4.549e-05
9 *5:8 3.414e-05
10 *5:9 1.854e-05
11 *5:10 1.854e-05
12 *5:11 3.069e-05
13 *5:12 3.069e-05
14 *5:13 0.00013554
15 *5:14 0.00013554
16 *5:15 0.00013214
17 *5:16 0.00013214
18 *5:17 2.019e-05
19 *5:18 1.883e-05
20 *5:19 2.077e-05
21 *5:20 2.6e-05
22 *5:21 1.523e-05
23 *5:22 8.607e-05
24 *5:23 8.607e-05
25 *5:24 2.121e-05
26 *5:25 2.121e-05
27 *5:15 *260:22 0.00013089
28 *5:16 *260:23 0.00013089
29 *5:9 *260:5 1.791e-05
30 *5:10 *260:6 1.791e-05
31 *5:19 *260:12 8.91e-06
32 *5:7 *260:7 8.91e-06
33 *5:23 *9:30 9.098e-05
34 *5:22 *9:31 9.098e-05
35 *5:11 *9:16 3.462e-05
36 *5:12 *9:32 3.462e-05
37 *5:25 *9:33 5.34e-06
38 *5:24 *9:34 5.34e-06
39 *5:19 *9:28 3.343e-05
40 *5:7 *9:29 3.343e-05
41 *5:23 *285:22 0.00022907
42 *5:22 *285:23 0.00022907
43 *5:20 *285:10 1.134e-05
44 *5:17 *285:11 1.134e-05
45 *5:7 *285:24 7.64e-06
46 *5:8 *285:25 7.64e-06

*RES
1 *5:25 *372:ZN 4
2 *5:24 *5:25 1.5
3 *5:13 *5:24 4
4 *5:14 *5:13 12.1786
5 *5:15 *5:14 4
6 *5:16 *5:15 5.88
7 *5:11 *5:16 4
8 *5:12 *5:11 2.07143
9 *5:19 *5:12 4
10 *5:7 *644:A2 4
11 *5:7 *5:19 2.5
12 *5:8 *5:7 3.5
13 *5:10 *5:8 4
14 *5:10 *5:9 1.07143
15 *5:23 *5:9 4
16 *5:22 *5:23 6.93
17 *5:6 *561:A1 4
18 *5:18 *651:A1 4
19 *5:21 *5:22 4
20 *5:5 *554:A2 4
21 *5:6 *5:5 5.5
22 *5:20 *5:18 4
23 *5:20 *5:21 1.07143
24 *5:17 *5:5 4
25 *5:17 *5:20 2.03571
*END

*D_NET *6 0.00171476

*CONN
*I *654:A1 I *C 33.5 33.915 *L 0.000905 *D OR2_X1
*I *640:A2 I *C 34.14 32.165 *L 0.00161 *D NAND2_X1
*I *564:A1 I *C 29.96 32.165 *L 0.000905 *D OR2_X1
*I *550:A2 I *C 30.15 34.965 *L 0.00161 *D NAND2_X1
*I *373:ZN O *C 34.62 37.39 *L 0 *D INV_X1

*CAP
1 *654:A1 1.896e-05
2 *640:A2 1.896e-05
3 *564:A1 1.896e-05
4 *550:A2 1.896e-05
5 *373:ZN 1.587e-05
6 *6:5 3.112e-05
7 *6:6 3.112e-05
8 *6:7 0.00014171
9 *6:8 0.0001262
10 *6:9 0.00017561
11 *6:10 0.00019227
12 *6:11 6.416e-05
13 *6:12 6.416e-05
14 *6:13 0.00011321
15 *6:14 0.00013844
16 *6:15 2.227e-05
17 *6:16 2.227e-05
18 *6:17 2.7e-05
19 *6:18 3.465e-05
20 *6:19 7.235e-05
21 *6:20 7.235e-05
22 *6:21 2.292e-05
23 *6:22 2.292e-05
24 *6:23 1.251e-05
25 *6:24 1.251e-05
26 *6:25 5.119e-05
27 *6:26 5.119e-05
28 *6:27 2.493e-05
29 *6:28 3.578e-05
30 *6:29 3.486e-05
31 *6:30 2.535e-05

*RES
1 *6:28 *564:A1 4
2 *6:28 *6:29 1
3 *6:9 *550:A2 4
4 *373:ZN *6:30 1.03143
5 *6:29 *6:10 0.678571
6 *6:10 *6:9 9
7 *6:22 *640:A2 4
8 *6:5 *6:30 4
9 *6:17 *6:10 0.5
10 *6:22 *6:21 0.5
11 *6:6 *6:5 2
12 *6:8 *6:17 4
13 *6:27 *6:21 4
14 *6:15 *6:6 4
15 *6:8 *6:7 12.4286
16 *6:7 *6:27 1.82143
17 *6:16 *6:15 0.535714
18 *6:26 *6:7 4
19 *6:19 *6:16 4
20 *6:26 *6:25 1.68
21 *6:20 *6:19 1.26
22 *6:24 *6:25 4
23 *6:11 *6:20 4
24 *6:23 *6:24 0.214286
25 *6:12 *6:11 4.21429
26 *6:18 *6:23 4
27 *6:13 *6:12 4
28 *6:18 *6:14 1
29 *6:14 *654:A1 4
30 *6:14 *6:13 8
*END

*D_NET *7 0.0015006

*CONN
*I *657:A1 I *C 35.155 29.365 *L 0.00164 *D NOR2_X1
*I *645:A2 I *C 35.09 33.915 *L 0.00161 *D NAND2_X1
*I *567:A1 I *C 33.255 29.365 *L 0.00164 *D NOR2_X1
*I *555:A2 I *C 33.38 31.115 *L 0.00161 *D NAND2_X1
*I *374:ZN O *C 35.87 37.39 *L 0 *D INV_X1

*CAP
1 *657:A1 1.896e-05
2 *645:A2 1.896e-05
3 *567:A1 1.896e-05
4 *555:A2 1.896e-05
5 *374:ZN 1.587e-05
6 *7:5 5.489e-05
7 *7:6 7.279e-05
8 *7:7 2.824e-05
9 *7:8 2.085e-05
10 *7:9 2.085e-05
11 *7:10 2.875e-05
12 *7:11 2.875e-05
13 *7:12 2.075e-05
14 *7:13 2.075e-05
15 *7:14 4.652e-05
16 *7:15 3.385e-05
17 *7:16 1.239e-05
18 *7:17 1.239e-05
19 *7:18 2.832e-05
20 *7:19 2.832e-05
21 *7:20 6.733e-05
22 *7:21 6.613e-05
23 *7:22 0.00020502
24 *7:23 0.00020502
25 *7:24 0.0001655
26 *7:25 0.0001655
27 *7:26 2.209e-05
28 *7:27 1.062e-05
29 *7:28 1.792e-05
30 *7:29 2.535e-05

*RES
1 *7:7 *567:A1 4
2 *7:5 *555:A2 4
3 *7:7 *7:6 1
4 *7:6 *7:5 4.5
5 *7:9 *657:A1 4
6 *7:6 *7:28 0.678571
7 *7:9 *7:8 1
8 *7:21 *7:28 4
9 *7:29 *374:ZN 1.03143
10 *7:20 *7:8 4
11 *7:21 *7:20 6.10714
12 *7:18 *7:29 4
13 *7:20 *7:27 0.107143
14 *7:19 *7:18 1.5
15 *7:23 *7:27 4
16 *7:16 *7:19 4
17 *7:23 *7:22 4.83
18 *7:17 *7:16 0.25
19 *7:12 *7:22 4
20 *7:24 *7:17 4
21 *7:13 *7:12 0.785714
22 *7:25 *7:24 4.41
23 *7:15 *7:13 4
24 *7:10 *7:25 4
25 *7:15 *7:14 3
26 *7:14 *645:A2 4
27 *7:11 *7:10 1.78571
28 *7:14 *7:26 1
29 *7:26 *7:11 4
*END

*D_NET *8 0.0008213

*CONN
*I *661:A1 I *C 31.6 37.765 *L 0.000905 *D OR2_X1
*I *641:A2 I *C 31.6 36.715 *L 0.00161 *D NAND2_X1
*I *571:A1 I *C 31.29 39.515 *L 0.000905 *D OR2_X1
*I *551:A2 I *C 31.48 37.765 *L 0.00161 *D NAND2_X1
*I *375:ZN O *C 31.39 42.69 *L 0 *D INV_X1

*CAP
1 *661:A1 8.95e-06
2 *641:A2 1.896e-05
3 *571:A1 1.896e-05
4 *551:A2 1.843e-05
5 *375:ZN 1.896e-05
6 *8:5 4.328e-05
7 *8:6 4.236e-05
8 *8:7 5.177e-05
9 *8:8 3.808e-05
10 *8:9 3.716e-05
11 *8:10 2.694e-05
12 *8:11 4.968e-05
13 *8:12 3.032e-05
14 *8:13 4.455e-05
15 *8:14 8.874e-05
16 *8:10 *272:8 9.193e-05
17 *8:11 *272:9 9.193e-05
18 *8:11 *272:9 5.015e-05
19 *8:12 *272:10 5.015e-05

*RES
1 *8:8 *375:ZN 4
2 *8:9 *8:8 2.5
3 *8:10 *8:9 0.678571
4 *8:5 *641:A2 4
5 *8:11 *571:A1 4
6 *8:11 *8:10 5.5
7 *8:5 *8:6 1.5
8 *8:12 *8:11 3
9 *8:7 *8:6 0.678571
10 *8:12 *8:13 0.678571
11 *8:7 *8:14 3
12 *8:14 *8:13 2.5
13 *551:A2 *8:14 4
14 *551:A2 *661:A1 1.03143
*END

*D_NET *9 0.00458803

*CONN
*I *666:B1 I *C 39.39 34.965 *L 0.00158 *D OAI33_X1
*I *649:B2 I *C 39.84 32.165 *L 0.00153 *D OAI21_X1
*I *636:A2 I *C 39.2 37.765 *L 0.00161 *D NAND2_X1
*I *576:B1 I *C 29.51 29.365 *L 0.00158 *D OAI33_X1
*I *559:B2 I *C 29.01 28.315 *L 0.00153 *D OAI21_X1
*I *546:A2 I *C 29.58 33.915 *L 0.00161 *D NAND2_X1
*I *376:ZN O *C 40.7 39.89 *L 0 *D INV_X1

*CAP
1 *666:B1 1.896e-05
2 *649:B2 1.789e-05
3 *636:A2 1.896e-05
4 *576:B1 1.896e-05
5 *559:B2 1.789e-05
6 *546:A2 1.896e-05
7 *376:ZN 1.896e-05
8 *9:7 2.292e-05
9 *9:8 2.292e-05
10 *9:9 0.00031634
11 *9:10 0.00031634
12 *9:11 0.00010491
13 *9:12 0.00010791
14 *9:13 0.00018295
15 *9:14 0.00017995
16 *9:15 0.00018842
17 *9:16 0.00020417
18 *9:17 7.565e-05
19 *9:18 7.565e-05
20 *9:19 6.997e-05
21 *9:20 4.423e-05
22 *9:21 2.204e-05
23 *9:22 2.204e-05
24 *9:23 3.2e-05
25 *9:24 0.000101
26 *9:25 7.75e-05
27 *9:26 2.478e-05
28 *9:27 2.57e-05
29 *9:28 2.379e-05
30 *9:29 2.379e-05
31 *9:30 0.00019982
32 *9:31 0.00019982
33 *9:32 2.817e-05
34 *9:33 4.264e-05
35 *9:34 4.264e-05
36 *9:35 0.00016518
37 *9:36 0.00012168
38 *9:37 0.00016224
39 *9:38 2.649e-05
40 *9:39 2.071e-05
41 *9:40 2.071e-05
42 *9:41 2.737e-05
43 *9:42 1.749e-05
44 *9:43 1.449e-05
45 *9:44 2.737e-05
46 *9:45 1.44e-05
47 *9:46 1.44e-05
48 *9:47 4.776e-05
49 *9:48 1.883e-05
50 *9:49 3.516e-05
51 *9:50 0.00014001
52 *9:30 *5:23 9.098e-05
53 *9:31 *5:22 9.098e-05
54 *9:16 *5:11 3.462e-05
55 *9:32 *5:12 3.462e-05
56 *9:33 *5:25 5.34e-06
57 *9:34 *5:24 5.34e-06
58 *9:28 *5:19 3.343e-05
59 *9:29 *5:7 3.343e-05
60 *9:13 *159:6 6.805e-05
61 *9:14 *159:9 6.805e-05
62 *9:13 *159:9 5.671e-05
63 *9:14 *159:8 5.671e-05
64 *9:9 *168:17 0.00011342
65 *9:10 *168:18 0.00011342

*RES
1 *559:B2 *9:41 2.06286
2 *9:27 *9:41 4
3 *9:33 *376:ZN 4
4 *9:27 *9:26 1
5 *9:22 *666:B1 4
6 *9:48 *636:A2 4
7 *9:34 *9:33 3.5
8 *9:26 *9:25 0.678571
9 *9:23 *576:B1 4
10 *649:B2 *9:44 2.06286
11 *9:22 *9:21 0.5
12 *9:20 *9:48 4
13 *9:49 *9:34 4
14 *9:25 *9:24 2.5
15 *9:24 *9:23 1
16 *9:8 *9:44 4
17 *9:18 *9:21 4
18 *9:20 *9:19 2.85714
19 *9:19 *9:49 2.57143
20 *9:10 *9:24 4
21 *9:8 *9:7 0.5
22 *9:18 *9:17 2.17857
23 *9:50 *9:19 4
24 *9:10 *9:9 25.4643
25 *9:45 *9:7 4
26 *9:37 *9:17 4
27 *9:37 *9:50 3.99
28 *9:31 *9:9 4
29 *9:45 *9:46 0.464286
30 *9:38 *9:37 0.21
31 *9:31 *9:30 7.56
32 *9:36 *9:46 4
33 *9:38 *9:47 0.42
34 *9:42 *9:30 4
35 *9:36 *9:35 2.94
36 *9:35 *9:47 1.05
37 *9:43 *9:42 0.357143
38 *9:15 *9:35 4
39 *9:43 *9:16 0.5